# ====================
# | Model parameters |
# ====================
#
# Continuous equation parameters
#
#   tRef            - Reference vertical potential temperature          (deg C)
#   sRef            - Reference vertical salinity                         (PSU)
#   viscAh          - Horizontal eddy viscosity coefficient             (m^2/s)
#   viscAz          - Vertical eddy viscosity coefficient               (m^2/s)
#   diffKhT         - Horizontal temperature diffusivity                (m^2/s)
#   diffKzT         - Vertical temperature diffusivity                  (m^2/s)
#   diffKhS         - Horizontal salt diffusivity                       (m^2/s)
#   diffKzS         - Vertical salt diffusivity                         (m^2/s)
#   tAlpha          - Linear EOS thermal expansion coefficient           (1/oC)
#   sBeta           - Linear EOS haline contraction coefficient         (1/ppt)
#   gravity         - Acceleration due to gravity                       (m/s^2)
#   rigidLid        - Set to true to use rigid lid
#   implicitFreeSurface - Set to true to use implicit free surface
#   eosType         - Flag for linear or polynomial equation of state
#   GMkbackground   - background value of GM/Redi coefficient
#   momAdvection    - On/Off flag for momentum self transport
#   momViscosity    - On/Off flag for momentum mixing
#
 &PARM01
 viscAz             = 1.E-3,
 diffKzT            = 1.E-5,
 diffKzS            = 1.E-5,
# viscAh             = 5.0E4,
# viscA4             = 5.e12,
# diffKhT            = 1.0E3,
# diffKhS            = 1.0E3,
 implicitFreeSurface= .TRUE.,
 implicitDiffusion  = .TRUE.,
 momAdvection       = .TRUE.,
 momViscosity       = .TRUE.,
 implicitDiffusion  = .TRUE.,
 implicitViscosity  = .TRUE.,
 no_slip_bottom     = .TRUE.,
 no_slip_sides      = .FALSE.,
 readBinaryPrec     = 32,
 globalFiles        = .TRUE.,
 &

# Elliptic solver parameters
#
#   cg2dMaxIters       - Maximum number of 2d solver iterations
#   cg2dTargetResidual - Solver target residual
#
 &PARM02
 cg2dMaxIters       = 1000,
 cg2dTargetResidual = 1.E-13,
 &

# Time stepping parameters
#
#   startTime         - Integration starting time                (s)
#   endTime           - Integration ending time                  (s)
#   tauCD             - CD scheme coupling timescale             (s)
#   deltaTMom         - Timestep for momemtum equations          (s)
#   deltaTtracer      - Tracer timestep                          (s)
#   deltaTClock       - Timestep used as model "clock"           (s)
#   abEps             - Adams-Bashforth stabilising factor
#   pChkPtFreq        - Frequency of permanent check pointing    (s)
#   chkPtFreq         - Frequency of rolling check pointing      (s)
#   dumpFreq          - Frequency at which model state is stored (s)
#   tauThetaClimRelax - Relaxation to climatology time scale     (s)
#   tauSaltClimRelax  - Relaxation to climatology time scale     (s)
#
 &PARM03
 startTime  = 0.0,
 endTime    = 86400.0,
 deltaT     = 360.0,
 cAdjFreq   = 360.0,
 pChkptFreq = 86400.0,
 chkptFreq  = 0.0,
 dumpFreq   = 86400.,
 monitorFreq=1.,
 &

# Gridding parameters
#
#   usingSphericalPolarGrid - On/Off flag for spherical polar coordinates
#   delX                    - Zonal grid spacing         (degrees)
#   delY                    - Meridional grid spacing    (degrees)
#   delZ                    - Vertical grid spacing      (m)
#   ygOrigin                - Southern boundary latitude (degrees)
#
 &PARM04
 usingSphericalPolarGrid = .TRUE.,
 delX     = 25*5.23504400E-4,
 delY     = 18*5.09259444e-4,
 delZ     = 10*1.0,
 ygOrigin = 5.77472222,
 xgOrigin = 0.69719017,
 &

# Input datasets
#
#   bathyFile       - File containing bathymetry
#   hydrogThetaFile - File containing initial potential temperature data
#   hydrogSaltFile  - File containing initial salinity data
#   zonalWindFile   - File containing zonal wind data
#   meridWindFile   - File containing meridional wind data
#   thetaClimFile   - File containing theta climatology used for relaxation
#   saltClimFile    - File containing salt climatology used for relaxation
#
 &PARM05
 bathyFile       = 'depth_25x18.bin',
 hydrogThetaFile = 'temp.bin',
# hydrogSaltFile  = 'kf_climsalt',
# zonalWindFile   = 'kf_tx',
# meridWindFile   = 'kf_ty',
# thetaClimFile   = 'kf_sst',
# saltClimFile    = 'kf_sss',
# surfQFile       = 'kf_qnet',
# EmPmRFile       = 'kf_empmr',
# surfQswFile     = 'kf_sw',
 &
